# AFLOW.org Repositories
# NO_RECURSION  [CUB,CUB,cP8] (STD_CONV doi:10.1016/j.commatsci.2010.05.010)
data_NO_RECURSION
_pd_phase_name NO_RECURSION
_cell_length_a  6.1620461181
_cell_length_b  6.1620461181
_cell_length_c  6.1620461181
_cell_angle_alpha  90.0000000000
_cell_angle_beta  90.0000000000
_cell_angle_gamma  90.0000000000
_symmetry_space_group_name_H-M  'P1'
_symmetry_Int_Tables_Number  1
loop_
_symmetry_equiv_pos_site_id
_symmetry_equiv_pos_as_xyz
  1  x,y,z
loop_
 _atom_site_label
 _atom_site_occupancy
 _atom_site_fract_x
 _atom_site_fract_y
 _atom_site_fract_z
 _atom_site_thermal_displace_type
 _atom_site_B_iso_or_equiv
 _atom_site_type_symbol
As1 1.0 0.0000000000 0.0000000000 0.0000000000  Biso 1.0 As
As2 1.0 0.5000000000 0.5000000000 0.0000000000  Biso 1.0 As
As3 1.0 0.5000000000 0.0000000000 0.5000000000  Biso 1.0 As
As4 1.0 0.0000000000 0.5000000000 0.5000000000  Biso 1.0 As
In5 1.0 0.2500000000 0.2500000000 0.2500000000  Biso 1.0 In
In6 1.0 0.7500000000 0.7500000000 0.2500000000  Biso 1.0 In
In7 1.0 0.7500000000 0.2500000000 0.7500000000  Biso 1.0 In
In8 1.0 0.2500000000 0.7500000000 0.7500000000  Biso 1.0 In
