data_image0
_cell_length_a       9.83906
_cell_length_b       19.6958
_cell_length_c       25.1703
_cell_angle_alpha    89.9165
_cell_angle_beta     89.8946
_cell_angle_gamma    90.001

_symmetry_space_group_name_H-M    "P 1"
_symmetry_int_tables_number       1

loop_
  _symmetry_equiv_pos_as_xyz
  'x, y, z'

loop_
  _atom_site_label
  _atom_site_occupancy
  _atom_site_fract_x
  _atom_site_fract_y
  _atom_site_fract_z
  _atom_site_thermal_displace_type
  _atom_site_B_iso_or_equiv
  _atom_site_type_symbol
  O1       1.0000 0.80727  0.87591  0.52153  Biso   1.000  O
  O2       1.0000 0.69227  0.37603  0.52164  Biso   1.000  O
  O3       1.0000 0.80701  0.62392  0.02115  Biso   1.000  O
  O4       1.0000 0.69265  0.12379  0.02105  Biso   1.000  O
  O5       1.0000 0.19273  0.12409  0.47847  Biso   1.000  O
  O6       1.0000 0.30773  0.62397  0.47836  Biso   1.000  O
  O7       1.0000 0.19299  0.37608  0.97885  Biso   1.000  O
  O8       1.0000 0.30735  0.87621  0.97895  Biso   1.000  O
  O9       1.0000 0.99794  0.87477  0.56619  Biso   1.000  O
  O10      1.0000 0.50181  0.37470  0.56671  Biso   1.000  O
  O11      1.0000 0.99764  0.62527  0.06583  Biso   1.000  O
  O12      1.0000 0.50227  0.12547  0.06615  Biso   1.000  O
  O13      1.0000 0.00206  0.12523  0.43381  Biso   1.000  O
  O14      1.0000 0.49819  0.62530  0.43329  Biso   1.000  O
  O15      1.0000 0.00236  0.37473  0.93417  Biso   1.000  O
  O16      1.0000 0.49773  0.87453  0.93385  Biso   1.000  O
  O17      1.0000 0.96854  0.91866  0.75312  Biso   1.000  O
  O18      1.0000 0.53154  0.41842  0.75354  Biso   1.000  O
  O19      1.0000 0.96842  0.58099  0.25281  Biso   1.000  O
  O20      1.0000 0.53140  0.08134  0.25305  Biso   1.000  O
  O21      1.0000 0.03146  0.08134  0.24688  Biso   1.000  O
  O22      1.0000 0.46846  0.58158  0.24646  Biso   1.000  O
  O23      1.0000 0.03158  0.41901  0.74719  Biso   1.000  O
  O24      1.0000 0.46860  0.91866  0.74695  Biso   1.000  O
  O25      1.0000 0.81010  0.98620  0.78414  Biso   1.000  O
  O26      1.0000 0.68917  0.48649  0.78427  Biso   1.000  O
  O27      1.0000 0.80977  0.51356  0.28397  Biso   1.000  O
  O28      1.0000 0.68914  0.01336  0.28394  Biso   1.000  O
  O29      1.0000 0.18990  0.01380  0.21586  Biso   1.000  O
  O30      1.0000 0.31083  0.51351  0.21573  Biso   1.000  O
  O31      1.0000 0.19023  0.48644  0.71603  Biso   1.000  O
  O32      1.0000 0.31086  0.98664  0.71606  Biso   1.000  O
  O33      1.0000 0.52787  0.10626  0.66374  Biso   1.000  O
  O34      1.0000 0.97187  0.60629  0.66350  Biso   1.000  O
  O35      1.0000 0.52809  0.39334  0.16364  Biso   1.000  O
  O36      1.0000 0.97175  0.89358  0.16342  Biso   1.000  O
  O37      1.0000 0.47213  0.89374  0.33626  Biso   1.000  O
  O38      1.0000 0.02813  0.39371  0.33650  Biso   1.000  O
  O39      1.0000 0.47191  0.60666  0.83636  Biso   1.000  O
  O40      1.0000 0.02825  0.10642  0.83658  Biso   1.000  O
  O41      1.0000 0.45928  0.05536  0.59153  Biso   1.000  O
  O42      1.0000 0.04066  0.55530  0.59126  Biso   1.000  O
  O43      1.0000 0.45938  0.44439  0.09140  Biso   1.000  O
  O44      1.0000 0.04074  0.94463  0.09112  Biso   1.000  O
  O45      1.0000 0.54072  0.94464  0.40847  Biso   1.000  O
  O46      1.0000 0.95934  0.44470  0.40874  Biso   1.000  O
  O47      1.0000 0.54062  0.55561  0.90860  Biso   1.000  O
  O48      1.0000 0.95926  0.05537  0.90888  Biso   1.000  O
  O49      1.0000 0.47407  0.21848  0.55773  Biso   1.000  O
  O50      1.0000 0.02617  0.71852  0.55756  Biso   1.000  O
  O51      1.0000 0.47439  0.28149  0.05763  Biso   1.000  O
  O52      1.0000 0.02573  0.78151  0.05769  Biso   1.000  O
  O53      1.0000 0.52593  0.78152  0.44227  Biso   1.000  O
  O54      1.0000 0.97383  0.28148  0.44244  Biso   1.000  O
  O55      1.0000 0.52561  0.71851  0.94237  Biso   1.000  O
  O56      1.0000 0.97427  0.21849  0.94231  Biso   1.000  O
  O57      1.0000 0.32769  0.25110  0.49703  Biso   1.000  O
  O58      1.0000 0.17290  0.75111  0.49676  Biso   1.000  O
  O59      1.0000 0.32804  0.24903  0.99694  Biso   1.000  O
  O60      1.0000 0.17244  0.74916  0.99689  Biso   1.000  O
  O61      1.0000 0.67231  0.74890  0.50297  Biso   1.000  O
  O62      1.0000 0.82710  0.24889  0.50324  Biso   1.000  O
  O63      1.0000 0.67196  0.75097  0.00306  Biso   1.000  O
  O64      1.0000 0.82756  0.25084  0.00311  Biso   1.000  O
  O65      1.0000 0.00638  0.04283  0.55684  Biso   1.000  O
  O66      1.0000 0.49418  0.54298  0.55655  Biso   1.000  O
  O67      1.0000 0.00623  0.45713  0.05663  Biso   1.000  O
  O68      1.0000 0.49382  0.95737  0.05647  Biso   1.000  O
  O69      1.0000 0.99362  0.95717  0.44316  Biso   1.000  O
  O70      1.0000 0.50582  0.45702  0.44345  Biso   1.000  O
  O71      1.0000 0.99377  0.54287  0.94337  Biso   1.000  O
  O72      1.0000 0.50618  0.04263  0.94353  Biso   1.000  O
  O73      1.0000 0.15913  0.01336  0.61629  Biso   1.000  O
  O74      1.0000 0.34080  0.51354  0.61598  Biso   1.000  O
  O75      1.0000 0.15913  0.48648  0.11599  Biso   1.000  O
  O76      1.0000 0.34058  0.98665  0.11594  Biso   1.000  O
  O77      1.0000 0.84087  0.98664  0.38371  Biso   1.000  O
  O78      1.0000 0.65920  0.48646  0.38402  Biso   1.000  O
  O79      1.0000 0.84087  0.51352  0.88401  Biso   1.000  O
  O80      1.0000 0.65942  0.01335  0.88406  Biso   1.000  O
  O81      1.0000 0.16976  0.37220  0.55069  Biso   1.000  O
  O82      1.0000 0.33005  0.87232  0.55048  Biso   1.000  O
  O83      1.0000 0.17030  0.12791  0.05056  Biso   1.000  O
  O84      1.0000 0.33019  0.62810  0.05035  Biso   1.000  O
  O85      1.0000 0.83024  0.62780  0.44931  Biso   1.000  O
  O86      1.0000 0.66995  0.12768  0.44952  Biso   1.000  O
  O87      1.0000 0.82970  0.87209  0.94944  Biso   1.000  O
  O88      1.0000 0.66981  0.37190  0.94965  Biso   1.000  O
  O89      1.0000 0.06033  0.39781  0.62483  Biso   1.000  O
  O90      1.0000 0.43895  0.89792  0.62458  Biso   1.000  O
  O91      1.0000 0.06050  0.10188  0.12459  Biso   1.000  O
  O92      1.0000 0.43958  0.60203  0.12430  Biso   1.000  O
  O93      1.0000 0.93967  0.60219  0.37517  Biso   1.000  O
  O94      1.0000 0.56105  0.10208  0.37542  Biso   1.000  O
  O95      1.0000 0.93950  0.89812  0.87541  Biso   1.000  O
  O96      1.0000 0.56042  0.39797  0.87570  Biso   1.000  O
  O97      1.0000 0.44702  0.28697  0.69190  Biso   1.000  O
  O98      1.0000 0.05246  0.78711  0.69172  Biso   1.000  O
  O99      1.0000 0.44749  0.21318  0.19204  Biso   1.000  O
  O100     1.0000 0.05207  0.71305  0.19188  Biso   1.000  O
  O101     1.0000 0.55298  0.71303  0.30810  Biso   1.000  O
  O102     1.0000 0.94754  0.21289  0.30828  Biso   1.000  O
  O103     1.0000 0.55251  0.78682  0.80796  Biso   1.000  O
  O104     1.0000 0.94793  0.28695  0.80812  Biso   1.000  O
  O105     1.0000 0.28147  0.31334  0.74699  Biso   1.000  O
  O106     1.0000 0.21769  0.81360  0.74668  Biso   1.000  O
  O107     1.0000 0.28195  0.18674  0.24716  Biso   1.000  O
  O108     1.0000 0.21727  0.68653  0.24691  Biso   1.000  O
  O109     1.0000 0.71853  0.68666  0.25301  Biso   1.000  O
  O110     1.0000 0.78231  0.18640  0.25332  Biso   1.000  O
  O111     1.0000 0.71805  0.81326  0.75284  Biso   1.000  O
  O112     1.0000 0.78273  0.31347  0.75309  Biso   1.000  O
  O113     1.0000 0.74820  0.15363  0.58460  Biso   1.000  O
  O114     1.0000 0.75198  0.65371  0.58427  Biso   1.000  O
  O115     1.0000 0.74831  0.34607  0.08441  Biso   1.000  O
  O116     1.0000 0.75168  0.84643  0.08419  Biso   1.000  O
  O117     1.0000 0.25180  0.84637  0.41540  Biso   1.000  O
  O118     1.0000 0.24802  0.34629  0.41573  Biso   1.000  O
  O119     1.0000 0.25169  0.65393  0.91559  Biso   1.000  O
  O120     1.0000 0.24832  0.15357  0.91581  Biso   1.000  O
  O121     1.0000 0.71646  0.24688  0.63119  Biso   1.000  O
  O122     1.0000 0.78333  0.74709  0.63071  Biso   1.000  O
  O123     1.0000 0.71680  0.25272  0.13112  Biso   1.000  O
  O124     1.0000 0.78298  0.75306  0.13085  Biso   1.000  O
  O125     1.0000 0.28354  0.75312  0.36881  Biso   1.000  O
  O126     1.0000 0.21667  0.25291  0.36929  Biso   1.000  O
  O127     1.0000 0.28320  0.74728  0.86888  Biso   1.000  O
  O128     1.0000 0.21702  0.24694  0.86915  Biso   1.000  O
  O129     1.0000 0.01292  0.07419  0.71153  Biso   1.000  O
  O130     1.0000 0.48668  0.57440  0.71115  Biso   1.000  O
  O131     1.0000 0.01314  0.42543  0.21133  Biso   1.000  O
  O132     1.0000 0.48653  0.92552  0.21104  Biso   1.000  O
  O133     1.0000 0.98708  0.92581  0.28847  Biso   1.000  O
  O134     1.0000 0.51332  0.42560  0.28885  Biso   1.000  O
  O135     1.0000 0.98686  0.57457  0.78867  Biso   1.000  O
  O136     1.0000 0.51347  0.07448  0.78896  Biso   1.000  O
  O137     1.0000 0.91074  0.16817  0.73741  Biso   1.000  O
  O138     1.0000 0.58862  0.66843  0.73693  Biso   1.000  O
  O139     1.0000 0.91101  0.33138  0.23730  Biso   1.000  O
  O140     1.0000 0.58836  0.83141  0.23692  Biso   1.000  O
  O141     1.0000 0.08926  0.83183  0.26259  Biso   1.000  O
  O142     1.0000 0.41138  0.33157  0.26307  Biso   1.000  O
  O143     1.0000 0.08899  0.66862  0.76270  Biso   1.000  O
  O144     1.0000 0.41164  0.16859  0.76308  Biso   1.000  O
  N1       1.0000 0.87883  0.89196  0.55991  Biso   1.000  N
  N2       1.0000 0.62085  0.39199  0.56018  Biso   1.000  N
  N3       1.0000 0.87862  0.60793  0.05957  Biso   1.000  N
  N4       1.0000 0.62119  0.10799  0.05967  Biso   1.000  N
  N5       1.0000 0.12117  0.10804  0.44009  Biso   1.000  N
  N6       1.0000 0.37915  0.60801  0.43982  Biso   1.000  N
  N7       1.0000 0.12138  0.39207  0.94043  Biso   1.000  N
  N8       1.0000 0.37881  0.89201  0.94033  Biso   1.000  N
  N9       1.0000 0.86582  0.95417  0.74822  Biso   1.000  N
  N10      1.0000 0.63391  0.45418  0.74846  Biso   1.000  N
  N11      1.0000 0.86560  0.54556  0.24798  Biso   1.000  N
  N12      1.0000 0.63388  0.04567  0.24806  Biso   1.000  N
  N13      1.0000 0.13418  0.04583  0.25178  Biso   1.000  N
  N14      1.0000 0.36609  0.54582  0.25154  Biso   1.000  N
  N15      1.0000 0.13440  0.45444  0.75202  Biso   1.000  N
  N16      1.0000 0.36612  0.95433  0.75194  Biso   1.000  N
  N17      1.0000 0.53860  0.06221  0.62887  Biso   1.000  N
  N18      1.0000 0.96123  0.56221  0.62867  Biso   1.000  N
  N19      1.0000 0.53873  0.43748  0.12874  Biso   1.000  N
  N20      1.0000 0.96123  0.93770  0.12852  Biso   1.000  N
  N21      1.0000 0.46140  0.93779  0.37113  Biso   1.000  N
  N22      1.0000 0.03877  0.43779  0.37133  Biso   1.000  N
  N23      1.0000 0.46127  0.56252  0.87126  Biso   1.000  N
  N24      1.0000 0.03877  0.06230  0.87148  Biso   1.000  N
  N25      1.0000 0.35980  0.23224  0.54173  Biso   1.000  N
  N26      1.0000 0.14050  0.73229  0.54149  Biso   1.000  N
  N27      1.0000 0.36013  0.26780  0.04162  Biso   1.000  N
  N28      1.0000 0.14009  0.76790  0.04159  Biso   1.000  N
  N29      1.0000 0.64020  0.76776  0.45827  Biso   1.000  N
  N30      1.0000 0.85950  0.26771  0.45851  Biso   1.000  N
  N31      1.0000 0.63987  0.73220  0.95838  Biso   1.000  N
  N32      1.0000 0.85991  0.23210  0.95841  Biso   1.000  N
  N33      1.0000 0.25232  0.22455  0.57847  Biso   1.000  N
  N34      1.0000 0.24779  0.72469  0.57820  Biso   1.000  N
  N35      1.0000 0.25259  0.27546  0.07833  Biso   1.000  N
  N36      1.0000 0.24746  0.77565  0.07824  Biso   1.000  N
  N37      1.0000 0.74768  0.77545  0.42153  Biso   1.000  N
  N38      1.0000 0.75221  0.27531  0.42180  Biso   1.000  N
  N39      1.0000 0.74741  0.72454  0.92167  Biso   1.000  N
  N40      1.0000 0.75254  0.22435  0.92176  Biso   1.000  N
  N41      1.0000 0.08927  0.05398  0.59220  Biso   1.000  N
  N42      1.0000 0.41092  0.55415  0.59190  Biso   1.000  N
  N43      1.0000 0.08923  0.44590  0.09197  Biso   1.000  N
  N44      1.0000 0.41064  0.94610  0.09186  Biso   1.000  N
  N45      1.0000 0.91073  0.94602  0.40780  Biso   1.000  N
  N46      1.0000 0.58908  0.44585  0.40810  Biso   1.000  N
  N47      1.0000 0.91077  0.55410  0.90803  Biso   1.000  N
  N48      1.0000 0.58936  0.05390  0.90814  Biso   1.000  N
  N49      1.0000 0.10871  0.12440  0.60502  Biso   1.000  N
  N50      1.0000 0.39134  0.62456  0.60469  Biso   1.000  N
  N51      1.0000 0.10875  0.37548  0.10483  Biso   1.000  N
  N52      1.0000 0.39111  0.87566  0.10470  Biso   1.000  N
  N53      1.0000 0.89129  0.87560  0.39498  Biso   1.000  N
  N54      1.0000 0.60866  0.37544  0.39531  Biso   1.000  N
  N55      1.0000 0.89125  0.62452  0.89517  Biso   1.000  N
  N56      1.0000 0.60889  0.12434  0.89530  Biso   1.000  N
  N57      1.0000 0.09850  0.35933  0.58947  Biso   1.000  N
  N58      1.0000 0.40116  0.85946  0.58920  Biso   1.000  N
  N59      1.0000 0.09887  0.14056  0.08931  Biso   1.000  N
  N60      1.0000 0.40133  0.64074  0.08908  Biso   1.000  N
  N61      1.0000 0.90150  0.64067  0.41053  Biso   1.000  N
  N62      1.0000 0.59884  0.14054  0.41080  Biso   1.000  N
  N63      1.0000 0.90113  0.85944  0.91069  Biso   1.000  N
  N64      1.0000 0.59867  0.35926  0.91092  Biso   1.000  N
  N65      1.0000 0.04960  0.29241  0.59297  Biso   1.000  N
  N66      1.0000 0.45034  0.79260  0.59260  Biso   1.000  N
  N67      1.0000 0.05005  0.20747  0.09287  Biso   1.000  N
  N68      1.0000 0.44993  0.70767  0.09267  Biso   1.000  N
  N69      1.0000 0.95040  0.70759  0.40703  Biso   1.000  N
  N70      1.0000 0.54966  0.20740  0.40740  Biso   1.000  N
  N71      1.0000 0.94995  0.79253  0.90713  Biso   1.000  N
  N72      1.0000 0.55007  0.29233  0.90733  Biso   1.000  N
  N73      1.0000 0.32801  0.28946  0.70598  Biso   1.000  N
  N74      1.0000 0.17140  0.78964  0.70572  Biso   1.000  N
  N75      1.0000 0.32847  0.21056  0.20608  Biso   1.000  N
  N76      1.0000 0.17102  0.71047  0.20588  Biso   1.000  N
  N77      1.0000 0.67199  0.71054  0.29402  Biso   1.000  N
  N78      1.0000 0.82860  0.21036  0.29428  Biso   1.000  N
  N79      1.0000 0.67153  0.78944  0.79392  Biso   1.000  N
  N80      1.0000 0.82898  0.28953  0.79412  Biso   1.000  N
  N81      1.0000 0.23133  0.26416  0.66771  Biso   1.000  N
  N82      1.0000 0.26829  0.76431  0.66743  Biso   1.000  N
  N83      1.0000 0.23169  0.23559  0.16763  Biso   1.000  N
  N84      1.0000 0.26794  0.73573  0.16752  Biso   1.000  N
  N85      1.0000 0.76867  0.73584  0.33229  Biso   1.000  N
  N86      1.0000 0.73171  0.23569  0.33257  Biso   1.000  N
  N87      1.0000 0.76831  0.76441  0.83237  Biso   1.000  N
  N88      1.0000 0.73206  0.26427  0.83248  Biso   1.000  N
  N89      1.0000 0.78542  0.20227  0.61088  Biso   1.000  N
  N90      1.0000 0.71453  0.70243  0.61047  Biso   1.000  N
  N91      1.0000 0.78566  0.29741  0.11075  Biso   1.000  N
  N92      1.0000 0.71420  0.79772  0.11050  Biso   1.000  N
  N93      1.0000 0.21458  0.79773  0.38912  Biso   1.000  N
  N94      1.0000 0.28547  0.29757  0.38953  Biso   1.000  N
  N95      1.0000 0.21434  0.70259  0.88925  Biso   1.000  N
  N96      1.0000 0.28580  0.20228  0.88950  Biso   1.000  N
  N97      1.0000 0.92920  0.20373  0.62210  Biso   1.000  N
  N98      1.0000 0.57067  0.70396  0.62165  Biso   1.000  N
  N99      1.0000 0.92944  0.29599  0.12196  Biso   1.000  N
  N100     1.0000 0.57035  0.79619  0.12169  Biso   1.000  N
  N101     1.0000 0.07080  0.79627  0.37790  Biso   1.000  N
  N102     1.0000 0.42933  0.29604  0.37835  Biso   1.000  N
  N103     1.0000 0.07056  0.70401  0.87804  Biso   1.000  N
  N104     1.0000 0.42965  0.20381  0.87831  Biso   1.000  N
  N105     1.0000 0.00279  0.13624  0.71570  Biso   1.000  N
  N106     1.0000 0.49672  0.63645  0.71530  Biso   1.000  N
  N107     1.0000 0.00302  0.36337  0.21554  Biso   1.000  N
  N108     1.0000 0.49648  0.86346  0.21526  Biso   1.000  N
  N109     1.0000 0.99721  0.86376  0.28430  Biso   1.000  N
  N110     1.0000 0.50328  0.36355  0.28470  Biso   1.000  N
  N111     1.0000 0.99698  0.63663  0.78446  Biso   1.000  N
  N112     1.0000 0.50352  0.13654  0.78474  Biso   1.000  N
  N113     1.0000 0.11016  0.17382  0.69435  Biso   1.000  N
  N114     1.0000 0.38938  0.67401  0.69402  Biso   1.000  N
  N115     1.0000 0.11035  0.32584  0.19418  Biso   1.000  N
  N116     1.0000 0.38910  0.82597  0.19404  Biso   1.000  N
  N117     1.0000 0.88984  0.82618  0.30565  Biso   1.000  N
  N118     1.0000 0.61062  0.32599  0.30598  Biso   1.000  N
  N119     1.0000 0.88965  0.67416  0.80582  Biso   1.000  N
  N120     1.0000 0.61090  0.17403  0.80596  Biso   1.000  N
  C1       1.0000 0.67318  0.99820  0.53337  Biso   1.000  C
  C2       1.0000 0.82670  0.49819  0.53335  Biso   1.000  C
  C3       1.0000 0.67356  0.50148  0.03316  Biso   1.000  C
  C4       1.0000 0.82653  0.00163  0.03306  Biso   1.000  C
  C5       1.0000 0.32682  0.00180  0.46663  Biso   1.000  C
  C6       1.0000 0.17330  0.50181  0.46665  Biso   1.000  C
  C7       1.0000 0.32644  0.49852  0.96684  Biso   1.000  C
  C8       1.0000 0.17347  0.99837  0.96694  Biso   1.000  C
  H1       1.0000 0.63362  0.04983  0.53059  Biso   1.000  H
  H2       1.0000 0.86635  0.54981  0.53053  Biso   1.000  H
  H3       1.0000 0.63399  0.44985  0.03051  Biso   1.000  H
  H4       1.0000 0.86671  0.95012  0.03038  Biso   1.000  H
  H5       1.0000 0.36638  0.95017  0.46941  Biso   1.000  H
  H6       1.0000 0.13365  0.45019  0.46947  Biso   1.000  H
  H7       1.0000 0.36601  0.55015  0.96949  Biso   1.000  H
  H8       1.0000 0.13329  0.04988  0.96962  Biso   1.000  H
  H9       1.0000 0.59530  0.96337  0.51821  Biso   1.000  H
  H10      1.0000 0.90455  0.46332  0.51812  Biso   1.000  H
  H11      1.0000 0.59581  0.53630  0.01781  Biso   1.000  H
  H12      1.0000 0.90378  0.03668  0.01753  Biso   1.000  H
  H13      1.0000 0.40470  0.03663  0.48179  Biso   1.000  H
  H14      1.0000 0.09545  0.53668  0.48188  Biso   1.000  H
  H15      1.0000 0.40419  0.46370  0.98219  Biso   1.000  H
  H16      1.0000 0.09622  0.96332  0.98247  Biso   1.000  H
  H17      1.0000 0.76176  0.99415  0.50727  Biso   1.000  H
  H18      1.0000 0.73812  0.49419  0.50737  Biso   1.000  H
  H19      1.0000 0.76233  0.50546  0.00714  Biso   1.000  H
  H20      1.0000 0.73768  0.00531  0.00717  Biso   1.000  H
  H21      1.0000 0.23824  0.00585  0.49273  Biso   1.000  H
  H22      1.0000 0.26188  0.50581  0.49263  Biso   1.000  H
  H23      1.0000 0.23767  0.49454  0.99286  Biso   1.000  H
  H24      1.0000 0.26232  0.99469  0.99283  Biso   1.000  H
  C9       1.0000 0.71033  0.98080  0.58942  Biso   1.000  C
  C10      1.0000 0.78945  0.48082  0.58945  Biso   1.000  C
  C11      1.0000 0.71042  0.51894  0.08919  Biso   1.000  C
  C12      1.0000 0.78951  0.01909  0.08912  Biso   1.000  C
  C13      1.0000 0.28967  0.01920  0.41058  Biso   1.000  C
  C14      1.0000 0.21055  0.51918  0.41055  Biso   1.000  C
  C15      1.0000 0.28958  0.48106  0.91081  Biso   1.000  C
  C16      1.0000 0.21049  0.98091  0.91088  Biso   1.000  C
  C17      1.0000 0.81409  0.93374  0.60207  Biso   1.000  C
  C18      1.0000 0.68566  0.43377  0.60225  Biso   1.000  C
  C19      1.0000 0.81400  0.56607  0.10179  Biso   1.000  C
  C20      1.0000 0.68585  0.06620  0.10182  Biso   1.000  C
  C21      1.0000 0.18591  0.06626  0.39793  Biso   1.000  C
  C22      1.0000 0.31434  0.56623  0.39775  Biso   1.000  C
  C23      1.0000 0.18600  0.43393  0.89821  Biso   1.000  C
  C24      1.0000 0.31415  0.93380  0.89818  Biso   1.000  C
  C25      1.0000 0.86501  0.92351  0.65293  Biso   1.000  C
  C26      1.0000 0.63478  0.42353  0.65319  Biso   1.000  C
  C27      1.0000 0.86481  0.57631  0.15264  Biso   1.000  C
  C28      1.0000 0.63496  0.07646  0.15274  Biso   1.000  C
  C29      1.0000 0.13499  0.07649  0.34707  Biso   1.000  C
  C30      1.0000 0.36522  0.57647  0.34681  Biso   1.000  C
  C31      1.0000 0.13519  0.42369  0.84736  Biso   1.000  C
  C32      1.0000 0.36504  0.92354  0.84726  Biso   1.000  C
  H25      1.0000 0.94818  0.88828  0.65993  Biso   1.000  H
  H26      1.0000 0.55161  0.38829  0.66032  Biso   1.000  H
  H27      1.0000 0.94791  0.61158  0.15959  Biso   1.000  H
  H28      1.0000 0.55185  0.11173  0.15977  Biso   1.000  H
  H29      1.0000 0.05182  0.11172  0.34007  Biso   1.000  H
  H30      1.0000 0.44839  0.61171  0.33968  Biso   1.000  H
  H31      1.0000 0.05209  0.38842  0.84041  Biso   1.000  H
  H32      1.0000 0.44815  0.88827  0.84023  Biso   1.000  H
  C33      1.0000 0.80736  0.96010  0.69424  Biso   1.000  C
  C34      1.0000 0.69244  0.46010  0.69441  Biso   1.000  C
  C35      1.0000 0.80716  0.53967  0.19401  Biso   1.000  C
  C36      1.0000 0.69254  0.03984  0.19404  Biso   1.000  C
  C37      1.0000 0.19264  0.03990  0.30576  Biso   1.000  C
  C38      1.0000 0.30756  0.53990  0.30559  Biso   1.000  C
  C39      1.0000 0.19284  0.46033  0.80599  Biso   1.000  C
  C40      1.0000 0.30746  0.96016  0.80596  Biso   1.000  C
  C41      1.0000 0.70059  0.00472  0.68583  Biso   1.000  C
  C42      1.0000 0.79922  0.50472  0.68585  Biso   1.000  C
  C43      1.0000 0.70046  0.49502  0.18565  Biso   1.000  C
  C44      1.0000 0.79930  0.99522  0.18557  Biso   1.000  C
  C45      1.0000 0.29941  0.99528  0.31417  Biso   1.000  C
  C46      1.0000 0.20078  0.49528  0.31415  Biso   1.000  C
  C47      1.0000 0.29954  0.50498  0.81435  Biso   1.000  C
  C48      1.0000 0.20070  0.00478  0.81443  Biso   1.000  C
  H33      1.0000 0.65545  0.03228  0.71881  Biso   1.000  H
  H34      1.0000 0.84440  0.53227  0.71877  Biso   1.000  H
  H35      1.0000 0.65524  0.46743  0.21866  Biso   1.000  H
  H36      1.0000 0.84447  0.96767  0.21856  Biso   1.000  H
  H37      1.0000 0.34455  0.96772  0.28119  Biso   1.000  H
  H38      1.0000 0.15560  0.46773  0.28123  Biso   1.000  H
  H39      1.0000 0.34476  0.53257  0.78134  Biso   1.000  H
  H40      1.0000 0.15553  0.03233  0.78144  Biso   1.000  H
  C49      1.0000 0.65399  0.01386  0.63417  Biso   1.000  C
  C50      1.0000 0.84581  0.51387  0.63413  Biso   1.000  C
  C51      1.0000 0.65402  0.48586  0.13399  Biso   1.000  C
  C52      1.0000 0.84587  0.98606  0.13387  Biso   1.000  C
  C53      1.0000 0.34601  0.98614  0.36583  Biso   1.000  C
  C54      1.0000 0.15419  0.48613  0.36587  Biso   1.000  C
  C55      1.0000 0.34598  0.51414  0.86601  Biso   1.000  C
  C56      1.0000 0.15413  0.01394  0.86613  Biso   1.000  C
  C57      1.0000 0.11284  0.23713  0.56302  Biso   1.000  C
  C58      1.0000 0.38734  0.73728  0.56268  Biso   1.000  C
  C59      1.0000 0.11314  0.26286  0.06289  Biso   1.000  C
  C60      1.0000 0.38700  0.76306  0.06273  Biso   1.000  C
  C61      1.0000 0.88716  0.76287  0.43698  Biso   1.000  C
  C62      1.0000 0.61266  0.26272  0.43732  Biso   1.000  C
  C63      1.0000 0.88686  0.73714  0.93711  Biso   1.000  C
  C64      1.0000 0.61300  0.23694  0.93727  Biso   1.000  C
  H41      1.0000 0.10829  0.24570  0.52010  Biso   1.000  H
  H42      1.0000 0.39217  0.74585  0.51976  Biso   1.000  H
  H43      1.0000 0.10862  0.25440  0.01998  Biso   1.000  H
  H44      1.0000 0.39181  0.75461  0.01982  Biso   1.000  H
  H45      1.0000 0.89171  0.75430  0.47990  Biso   1.000  H
  H46      1.0000 0.60783  0.25415  0.48024  Biso   1.000  H
  H47      1.0000 0.89138  0.74560  0.98002  Biso   1.000  H
  H48      1.0000 0.60819  0.24539  0.98018  Biso   1.000  H
  C65      1.0000 0.02207  0.17502  0.58155  Biso   1.000  C
  C66      1.0000 0.47809  0.67520  0.58117  Biso   1.000  C
  C67      1.0000 0.02223  0.32487  0.08138  Biso   1.000  C
  C68      1.0000 0.47779  0.82508  0.08118  Biso   1.000  C
  C69      1.0000 0.97793  0.82498  0.41845  Biso   1.000  C
  C70      1.0000 0.52191  0.32480  0.41883  Biso   1.000  C
  C71      1.0000 0.97777  0.67513  0.91862  Biso   1.000  C
  C72      1.0000 0.52221  0.17492  0.91882  Biso   1.000  C
  H49      1.0000 0.96446  0.15277  0.54876  Biso   1.000  H
  H50      1.0000 0.53589  0.65295  0.54835  Biso   1.000  H
  H51      1.0000 0.96457  0.34717  0.04858  Biso   1.000  H
  H52      1.0000 0.53562  0.84742  0.04836  Biso   1.000  H
  H53      1.0000 0.03554  0.84723  0.45124  Biso   1.000  H
  H54      1.0000 0.46411  0.34705  0.45165  Biso   1.000  H
  H55      1.0000 0.03543  0.65283  0.95142  Biso   1.000  H
  H56      1.0000 0.46438  0.15258  0.95164  Biso   1.000  H
  C73      1.0000 0.19029  0.14450  0.64984  Biso   1.000  C
  C74      1.0000 0.30950  0.64466  0.64956  Biso   1.000  C
  C75      1.0000 0.19042  0.35530  0.14965  Biso   1.000  C
  C76      1.0000 0.30923  0.85544  0.14955  Biso   1.000  C
  C77      1.0000 0.80971  0.85550  0.35016  Biso   1.000  C
  C78      1.0000 0.69050  0.35534  0.35044  Biso   1.000  C
  C79      1.0000 0.80958  0.64470  0.85035  Biso   1.000  C
  C80      1.0000 0.69077  0.14456  0.85045  Biso   1.000  C
  H57      1.0000 0.25249  0.10165  0.66306  Biso   1.000  H
  H58      1.0000 0.24725  0.60181  0.66282  Biso   1.000  H
  H59      1.0000 0.25254  0.39814  0.16282  Biso   1.000  H
  H60      1.0000 0.24699  0.89825  0.16280  Biso   1.000  H
  H61      1.0000 0.74751  0.89835  0.33694  Biso   1.000  H
  H62      1.0000 0.75275  0.39819  0.33718  Biso   1.000  H
  H63      1.0000 0.74746  0.60186  0.83718  Biso   1.000  H
  H64      1.0000 0.75301  0.10175  0.83720  Biso   1.000  H
  C81      1.0000 0.27918  0.20812  0.63308  Biso   1.000  C
  C82      1.0000 0.22065  0.70826  0.63283  Biso   1.000  C
  C83      1.0000 0.27940  0.29176  0.13294  Biso   1.000  C
  C84      1.0000 0.22036  0.79190  0.13287  Biso   1.000  C
  C85      1.0000 0.72082  0.79188  0.36692  Biso   1.000  C
  C86      1.0000 0.77935  0.29174  0.36717  Biso   1.000  C
  C87      1.0000 0.72060  0.70824  0.86706  Biso   1.000  C
  C88      1.0000 0.77964  0.20810  0.86713  Biso   1.000  C
  H65      1.0000 0.38805  0.19865  0.63863  Biso   1.000  H
  H66      1.0000 0.11176  0.69876  0.63844  Biso   1.000  H
  H67      1.0000 0.38825  0.30126  0.13848  Biso   1.000  H
  H68      1.0000 0.11147  0.80138  0.13848  Biso   1.000  H
  H69      1.0000 0.61195  0.80135  0.36137  Biso   1.000  H
  H70      1.0000 0.88824  0.30124  0.36156  Biso   1.000  H
  H71      1.0000 0.61175  0.69874  0.86152  Biso   1.000  H
  H72      1.0000 0.88853  0.19862  0.86152  Biso   1.000  H
  C89      1.0000 0.98723  0.26661  0.64173  Biso   1.000  C
  C90      1.0000 0.51251  0.76682  0.64131  Biso   1.000  C
  C91      1.0000 0.98762  0.23309  0.14162  Biso   1.000  C
  C92      1.0000 0.51214  0.73327  0.14137  Biso   1.000  C
  C93      1.0000 0.01277  0.73339  0.35827  Biso   1.000  C
  C94      1.0000 0.48749  0.23318  0.35869  Biso   1.000  C
  C95      1.0000 0.01238  0.76691  0.85838  Biso   1.000  C
  C96      1.0000 0.48786  0.26673  0.85863  Biso   1.000  C
  H73      1.0000 0.90987  0.30096  0.65753  Biso   1.000  H
  H74      1.0000 0.58976  0.80119  0.65705  Biso   1.000  H
  H75      1.0000 0.91036  0.19864  0.15743  Biso   1.000  H
  H76      1.0000 0.58935  0.69883  0.15712  Biso   1.000  H
  H77      1.0000 0.09013  0.69904  0.34247  Biso   1.000  H
  H78      1.0000 0.41024  0.19881  0.34295  Biso   1.000  H
  H79      1.0000 0.08964  0.80136  0.84257  Biso   1.000  H
  H80      1.0000 0.41065  0.30117  0.84288  Biso   1.000  H
  C97      1.0000 0.09599  0.24763  0.68698  Biso   1.000  C
  C98      1.0000 0.40353  0.74782  0.68663  Biso   1.000  C
  C99      1.0000 0.09629  0.25203  0.18686  Biso   1.000  C
  C100     1.0000 0.40321  0.75217  0.18669  Biso   1.000  C
  C101     1.0000 0.90401  0.75237  0.31302  Biso   1.000  C
  C102     1.0000 0.59647  0.25218  0.31337  Biso   1.000  C
  C103     1.0000 0.90371  0.74797  0.81314  Biso   1.000  C
  C104     1.0000 0.59679  0.24783  0.81331  Biso   1.000  C
  H81      1.0000 0.07299  0.27366  0.72431  Biso   1.000  H
  H82      1.0000 0.42632  0.77386  0.72395  Biso   1.000  H
  H83      1.0000 0.07327  0.22592  0.22421  Biso   1.000  H
  H84      1.0000 0.42603  0.72604  0.22402  Biso   1.000  H
  H85      1.0000 0.92701  0.72634  0.27569  Biso   1.000  H
  H86      1.0000 0.57368  0.22614  0.27605  Biso   1.000  H
  H87      1.0000 0.92673  0.77408  0.77579  Biso   1.000  H
  H88      1.0000 0.57397  0.27396  0.77598  Biso   1.000  H
