data_image0
_cell_length_a       6.59576
_cell_length_b       7.39603
_cell_length_c       11.0263
_cell_angle_alpha    89.9527
_cell_angle_beta     89.7876
_cell_angle_gamma    102.058

_symmetry_space_group_name_H-M    "P 1"
_symmetry_int_tables_number       1

loop_
  _symmetry_equiv_pos_as_xyz
  'x, y, z'

loop_
  _atom_site_label
  _atom_site_occupancy
  _atom_site_fract_x
  _atom_site_fract_y
  _atom_site_fract_z
  _atom_site_thermal_displace_type
  _atom_site_B_iso_or_equiv
  _atom_site_type_symbol
  H1       1.0000 0.67613  0.76184  0.47544  Biso   1.000  H
  H2       1.0000 0.82328  0.73728  0.97626  Biso   1.000  H
  H3       1.0000 0.32360  0.23764  0.52452  Biso   1.000  H
  H4       1.0000 0.17654  0.26239  0.02361  Biso   1.000  H
  H5       1.0000 0.72873  0.38453  0.30262  Biso   1.000  H
  H6       1.0000 0.77130  0.11483  0.80334  Biso   1.000  H
  H7       1.0000 0.27127  0.61510  0.69727  Biso   1.000  H
  H8       1.0000 0.22837  0.88479  0.19654  Biso   1.000  H
  H9       1.0000 0.50669  0.82061  0.36408  Biso   1.000  H
  H10      1.0000 0.99333  0.67879  0.86452  Biso   1.000  H
  H11      1.0000 0.49325  0.17899  0.63584  Biso   1.000  H
  H12      1.0000 0.00648  0.32090  0.13533  Biso   1.000  H
  H13      1.0000 0.83091  0.54599  0.41936  Biso   1.000  H
  H14      1.0000 0.66897  0.95368  0.92086  Biso   1.000  H
  H15      1.0000 0.16885  0.45353  0.58063  Biso   1.000  H
  H16      1.0000 0.33083  0.04599  0.07908  Biso   1.000  H
  C1       1.0000 0.52514  0.71672  0.43153  Biso   1.000  C
  C2       1.0000 0.97452  0.78258  0.93194  Biso   1.000  C
  C3       1.0000 0.47467  0.28279  0.56834  Biso   1.000  C
  C4       1.0000 0.02528  0.21710  0.06791  Biso   1.000  C
  C5       1.0000 0.69518  0.44402  0.38940  Biso   1.000  C
  C6       1.0000 0.80478  0.05552  0.89011  Biso   1.000  C
  C7       1.0000 0.30465  0.55552  0.61048  Biso   1.000  C
  C8       1.0000 0.19498  0.94415  0.10977  Biso   1.000  C
  N1       1.0000 0.52636  0.53811  0.37563  Biso   1.000  N
  N2       1.0000 0.97344  0.96118  0.87585  Biso   1.000  N
  N3       1.0000 0.47352  0.46145  0.62419  Biso   1.000  N
  N4       1.0000 0.02632  0.03849  0.12400  Biso   1.000  N
  N5       1.0000 0.35793  0.70695  0.51976  Biso   1.000  N
  N6       1.0000 0.14145  0.79244  0.01964  Biso   1.000  N
  N7       1.0000 0.64178  0.29249  0.48005  Biso   1.000  N
  N8       1.0000 0.85838  0.20728  0.98019  Biso   1.000  N
  N9       1.0000 0.36917  0.46407  0.29435  Biso   1.000  N
  N10      1.0000 0.13122  0.03556  0.79428  Biso   1.000  N
  N11      1.0000 0.63070  0.53546  0.70548  Biso   1.000  N
  N12      1.0000 0.86851  0.96410  0.20556  Biso   1.000  N
  N13      1.0000 0.20054  0.79778  0.49321  Biso   1.000  N
  N14      1.0000 0.29858  0.70113  0.99295  Biso   1.000  N
  N15      1.0000 0.79919  0.20168  0.50661  Biso   1.000  N
  N16      1.0000 0.70123  0.29858  0.00690  Biso   1.000  N
  O1       1.0000 0.23768  0.55726  0.27424  Biso   1.000  O
  O2       1.0000 0.26317  0.94266  0.77411  Biso   1.000  O
  O3       1.0000 0.76218  0.44226  0.72558  Biso   1.000  O
  O4       1.0000 0.73656  0.05701  0.22571  Biso   1.000  O
  O5       1.0000 0.37268  0.31038  0.25293  Biso   1.000  O
  O6       1.0000 0.12765  0.18922  0.75267  Biso   1.000  O
  O7       1.0000 0.62722  0.68915  0.74692  Biso   1.000  O
  O8       1.0000 0.87202  0.81042  0.24714  Biso   1.000  O
  O9       1.0000 0.23669  0.92683  0.41993  Biso   1.000  O
  O10      1.0000 0.26236  0.57189  0.92010  Biso   1.000  O
  O11      1.0000 0.76299  0.07258  0.57987  Biso   1.000  O
  O12      1.0000 0.73747  0.42783  0.07974  Biso   1.000  O
  O13      1.0000 0.03549  0.74436  0.54987  Biso   1.000  O
  O14      1.0000 0.46344  0.75430  0.04903  Biso   1.000  O
  O15      1.0000 0.96427  0.25513  0.44999  Biso   1.000  O
  O16      1.0000 0.53636  0.24539  0.95084  Biso   1.000  O
