data_image0
_cell_length_a       6.59576
_cell_length_b       7.39603
_cell_length_c       11.0263
_cell_angle_alpha    90.0473
_cell_angle_beta     90.2124
_cell_angle_gamma    102.058

_symmetry_space_group_name_H-M    "P 1"
_symmetry_int_tables_number       1

loop_
  _symmetry_equiv_pos_as_xyz
  'x, y, z'

loop_
  _atom_site_label
  _atom_site_occupancy
  _atom_site_fract_x
  _atom_site_fract_y
  _atom_site_fract_z
  _atom_site_thermal_displace_type
  _atom_site_B_iso_or_equiv
  _atom_site_type_symbol
  H1       1.0000 0.32387  0.23816  0.47544  Biso   1.000  H
  H2       1.0000 0.67640  0.76236  0.52452  Biso   1.000  H
  H3       1.0000 0.27127  0.61547  0.30262  Biso   1.000  H
  H4       1.0000 0.72873  0.38490  0.69727  Biso   1.000  H
  H5       1.0000 0.49331  0.17939  0.36408  Biso   1.000  H
  H6       1.0000 0.50675  0.82101  0.63584  Biso   1.000  H
  H7       1.0000 0.16909  0.45401  0.41936  Biso   1.000  H
  H8       1.0000 0.83115  0.54647  0.58063  Biso   1.000  H
  C1       1.0000 0.47486  0.28328  0.43153  Biso   1.000  C
  C2       1.0000 0.52533  0.71721  0.56834  Biso   1.000  C
  C3       1.0000 0.30482  0.55598  0.38940  Biso   1.000  C
  C4       1.0000 0.69535  0.44448  0.61048  Biso   1.000  C
  C5       1.0000 0.47364  0.46189  0.37563  Biso   1.000  C
  C6       1.0000 0.52648  0.53855  0.62419  Biso   1.000  C
  C7       1.0000 0.64207  0.29305  0.51976  Biso   1.000  C
  C8       1.0000 0.35822  0.70751  0.48005  Biso   1.000  C
  N1       1.0000 0.63083  0.53593  0.29435  Biso   1.000  N
  N2       1.0000 0.36930  0.46454  0.70548  Biso   1.000  N
  O1       1.0000 0.79946  0.20222  0.49321  Biso   1.000  O
  O2       1.0000 0.20081  0.79832  0.50661  Biso   1.000  O
  N3       1.0000 0.76232  0.44274  0.27424  Biso   1.000  N
  N4       1.0000 0.23782  0.55774  0.72558  Biso   1.000  N
  N5       1.0000 0.62732  0.68962  0.25293  Biso   1.000  N
  N6       1.0000 0.37278  0.31085  0.74692  Biso   1.000  N
  O3       1.0000 0.76331  0.07317  0.41993  Biso   1.000  O
  O4       1.0000 0.23701  0.92742  0.57987  Biso   1.000  O
  O5       1.0000 0.96451  0.25564  0.54987  Biso   1.000  O
  O6       1.0000 0.03573  0.74487  0.44999  Biso   1.000  O
  H9       1.0000 0.17672  0.26272  0.97626  Biso   1.000  H
  H10      1.0000 0.82346  0.73761  0.02361  Biso   1.000  H
  H11      1.0000 0.22870  0.88517  0.80334  Biso   1.000  H
  H12      1.0000 0.77163  0.11521  0.19654  Biso   1.000  H
  H13      1.0000 0.00667  0.32121  0.86452  Biso   1.000  H
  H14      1.0000 0.99352  0.67910  0.13533  Biso   1.000  H
  H15      1.0000 0.33103  0.04632  0.92086  Biso   1.000  H
  H16      1.0000 0.66917  0.95401  0.07908  Biso   1.000  H
  C9       1.0000 0.02548  0.21742  0.93194  Biso   1.000  C
  C10      1.0000 0.97472  0.78290  0.06791  Biso   1.000  C
  C11      1.0000 0.19522  0.94448  0.89011  Biso   1.000  C
  C12      1.0000 0.80502  0.05585  0.10977  Biso   1.000  C
  C13      1.0000 0.02656  0.03882  0.87585  Biso   1.000  C
  C14      1.0000 0.97368  0.96151  0.12400  Biso   1.000  C
  C15      1.0000 0.85855  0.20756  0.01964  Biso   1.000  C
  C16      1.0000 0.14162  0.79272  0.98019  Biso   1.000  C
  N7       1.0000 0.86878  0.96444  0.79428  Biso   1.000  N
  N8       1.0000 0.13149  0.03590  0.20556  Biso   1.000  N
  O7       1.0000 0.70142  0.29887  0.99295  Biso   1.000  O
  O8       1.0000 0.29877  0.70142  0.00690  Biso   1.000  O
  N9       1.0000 0.73683  0.05734  0.77411  Biso   1.000  N
  N10      1.0000 0.26344  0.94299  0.22571  Biso   1.000  N
  N11      1.0000 0.87235  0.81078  0.75267  Biso   1.000  N
  N12      1.0000 0.12798  0.18958  0.24714  Biso   1.000  N
  O9       1.0000 0.73764  0.42811  0.92010  Biso   1.000  O
  O10      1.0000 0.26253  0.57217  0.07974  Biso   1.000  O
  O11      1.0000 0.53656  0.24570  0.04903  Biso   1.000  O
  O12      1.0000 0.46364  0.75461  0.95084  Biso   1.000  O
