data_image0
_cell_length_a       7.69329
_cell_length_b       6.06153
_cell_length_c       15.8992
_cell_angle_alpha    101.838
_cell_angle_beta     112.899
_cell_angle_gamma    85.6219

_symmetry_space_group_name_H-M    "P 1"
_symmetry_int_tables_number       1

loop_
  _symmetry_equiv_pos_as_xyz
  'x, y, z'

loop_
  _atom_site_label
  _atom_site_occupancy
  _atom_site_fract_x
  _atom_site_fract_y
  _atom_site_fract_z
  _atom_site_thermal_displace_type
  _atom_site_B_iso_or_equiv
  _atom_site_type_symbol
  C1       1.0000 0.11682  0.03289  0.40844  Biso   1.000  C
  C2       1.0000 0.88318  0.96711  0.59156  Biso   1.000  C
  C3       1.0000 0.96884  0.72719  0.27866  Biso   1.000  C
  C4       1.0000 0.03116  0.27281  0.72134  Biso   1.000  C
  C5       1.0000 0.02742  0.81660  0.37187  Biso   1.000  C
  C6       1.0000 0.97258  0.18340  0.62813  Biso   1.000  C
  C7       1.0000 0.14487  0.15464  0.35081  Biso   1.000  C
  C8       1.0000 0.85513  0.84536  0.64919  Biso   1.000  C
  C9       1.0000 0.08760  0.06702  0.25312  Biso   1.000  C
  C10      1.0000 0.91240  0.93298  0.74688  Biso   1.000  C
  C11      1.0000 0.11728  0.18486  0.19313  Biso   1.000  C
  C12      1.0000 0.88272  0.81514  0.80687  Biso   1.000  C
  C13      1.0000 0.05992  0.09615  0.09683  Biso   1.000  C
  C14      1.0000 0.94008  0.90385  0.90317  Biso   1.000  C
  C15      1.0000 0.08930  0.21343  0.03589  Biso   1.000  C
  C16      1.0000 0.91070  0.78657  0.96411  Biso   1.000  C
  C17      1.0000 0.96794  0.87581  0.05968  Biso   1.000  C
  C18      1.0000 0.03206  0.12419  0.94032  Biso   1.000  C
  C19      1.0000 0.93927  0.75790  0.12123  Biso   1.000  C
  C20      1.0000 0.06073  0.24210  0.87877  Biso   1.000  C
  C21      1.0000 0.99667  0.84683  0.21607  Biso   1.000  C
  C22      1.0000 0.00333  0.15317  0.78393  Biso   1.000  C
  C23      1.0000 0.54309  0.57670  0.39943  Biso   1.000  C
  C24      1.0000 0.45691  0.42330  0.60057  Biso   1.000  C
  C25      1.0000 0.48546  0.68938  0.32669  Biso   1.000  C
  C26      1.0000 0.51454  0.31062  0.67331  Biso   1.000  C
  C27      1.0000 0.50454  0.58914  0.24105  Biso   1.000  C
  C28      1.0000 0.49546  0.41086  0.75895  Biso   1.000  C
  C29      1.0000 0.44963  0.70143  0.16657  Biso   1.000  C
  C30      1.0000 0.55037  0.29857  0.83343  Biso   1.000  C
  C31      1.0000 0.47281  0.60388  0.08295  Biso   1.000  C
  C32      1.0000 0.52719  0.39612  0.91705  Biso   1.000  C
  C33      1.0000 0.42044  0.71764  0.00820  Biso   1.000  C
  C34      1.0000 0.57956  0.28236  0.99180  Biso   1.000  C
  C35      1.0000 0.55461  0.37918  0.07445  Biso   1.000  C
  C36      1.0000 0.44539  0.62082  0.92555  Biso   1.000  C
  C37      1.0000 0.60809  0.26604  0.15013  Biso   1.000  C
  C38      1.0000 0.39191  0.73396  0.84987  Biso   1.000  C
  C39      1.0000 0.58596  0.36485  0.23262  Biso   1.000  C
  C40      1.0000 0.41404  0.63515  0.76738  Biso   1.000  C
  C41      1.0000 0.64416  0.25400  0.31051  Biso   1.000  C
  C42      1.0000 0.35584  0.74600  0.68949  Biso   1.000  C
  C43      1.0000 0.62377  0.35684  0.39142  Biso   1.000  C
  C44      1.0000 0.37623  0.64316  0.60858  Biso   1.000  C
  H1       1.0000 0.16186  0.10216  0.48269  Biso   1.000  H
  H2       1.0000 0.83814  0.89784  0.51731  Biso   1.000  H
  H3       1.0000 0.90013  0.56272  0.25069  Biso   1.000  H
  H4       1.0000 0.09987  0.43728  0.74931  Biso   1.000  H
  H5       1.0000 0.00420  0.72219  0.41815  Biso   1.000  H
  H6       1.0000 0.99580  0.27781  0.58185  Biso   1.000  H
  H7       1.0000 0.21101  0.32095  0.37805  Biso   1.000  H
  H8       1.0000 0.78899  0.67905  0.62195  Biso   1.000  H
  H9       1.0000 0.18690  0.34911  0.22082  Biso   1.000  H
  H10      1.0000 0.81310  0.65089  0.77918  Biso   1.000  H
  H11      1.0000 0.15816  0.37811  0.06341  Biso   1.000  H
  H12      1.0000 0.84184  0.62189  0.93659  Biso   1.000  H
  H13      1.0000 0.87101  0.59291  0.09366  Biso   1.000  H
  H14      1.0000 0.12899  0.40709  0.90634  Biso   1.000  H
  H15      1.0000 0.52714  0.65633  0.46402  Biso   1.000  H
  H16      1.0000 0.47286  0.34367  0.53598  Biso   1.000  H
  H17      1.0000 0.42441  0.85731  0.33306  Biso   1.000  H
  H18      1.0000 0.57559  0.14269  0.66694  Biso   1.000  H
  H19      1.0000 0.38853  0.86939  0.17298  Biso   1.000  H
  H20      1.0000 0.61147  0.13061  0.82702  Biso   1.000  H
  H21      1.0000 0.35881  0.88533  0.01452  Biso   1.000  H
  H22      1.0000 0.64119  0.11467  0.98548  Biso   1.000  H
  H23      1.0000 0.67020  0.09855  0.14395  Biso   1.000  H
  H24      1.0000 0.32980  0.90145  0.85605  Biso   1.000  H
  H25      1.0000 0.70592  0.08644  0.30435  Biso   1.000  H
  H26      1.0000 0.29408  0.91356  0.69565  Biso   1.000  H
  H27      1.0000 0.66887  0.27020  0.45016  Biso   1.000  H
  H28      1.0000 0.33113  0.72980  0.54984  Biso   1.000  H
