data_image0
_cell_length_a       13.838
_cell_length_b       13.8378
_cell_length_c       14.0589
_cell_angle_alpha    89.9864
_cell_angle_beta     90.0152
_cell_angle_gamma    29.4619

_symmetry_space_group_name_H-M    "P 1"
_symmetry_int_tables_number       1

loop_
  _symmetry_equiv_pos_as_xyz
  'x, y, z'

loop_
  _atom_site_label
  _atom_site_occupancy
  _atom_site_fract_x
  _atom_site_fract_y
  _atom_site_fract_z
  _atom_site_thermal_displace_type
  _atom_site_B_iso_or_equiv
  _atom_site_type_symbol
  C1       1.0000 0.92144  0.13151  0.67362  Biso   1.000  C
  C2       1.0000 0.57987  0.36717  0.17295  Biso   1.000  C
  C3       1.0000 0.36715  0.57990  0.82705  Biso   1.000  C
  C4       1.0000 0.07834  0.86870  0.32643  Biso   1.000  C
  C5       1.0000 0.86850  0.07855  0.67361  Biso   1.000  C
  C6       1.0000 0.13129  0.92166  0.32643  Biso   1.000  C
  C7       1.0000 0.42012  0.63284  0.82704  Biso   1.000  C
  C8       1.0000 0.63283  0.42011  0.17295  Biso   1.000  C
  C9       1.0000 0.82954  0.22451  0.41263  Biso   1.000  C
  C10      1.0000 0.66981  0.27614  0.91277  Biso   1.000  C
  C11      1.0000 0.27612  0.66983  0.08723  Biso   1.000  C
  C12      1.0000 0.17014  0.77581  0.58733  Biso   1.000  C
  C13      1.0000 0.77550  0.17045  0.41263  Biso   1.000  C
  C14      1.0000 0.22418  0.82987  0.58733  Biso   1.000  C
  C15      1.0000 0.33017  0.72387  0.08723  Biso   1.000  C
  C16      1.0000 0.72386  0.33019  0.91277  Biso   1.000  C
  C17      1.0000 0.00991  0.09443  0.36725  Biso   1.000  C
  C18      1.0000 0.48900  0.40665  0.86759  Biso   1.000  C
  C19      1.0000 0.40661  0.48903  0.13241  Biso   1.000  C
  C20      1.0000 0.98983  0.90582  0.63275  Biso   1.000  C
  C21      1.0000 0.90558  0.99008  0.36725  Biso   1.000  C
  C22      1.0000 0.09416  0.01018  0.63275  Biso   1.000  C
  C23      1.0000 0.51098  0.59337  0.13240  Biso   1.000  C
  C24      1.0000 0.59337  0.51099  0.86758  Biso   1.000  C
  C25      1.0000 0.90644  0.20049  0.95047  Biso   1.000  C
  C26      1.0000 0.59316  0.29988  0.45039  Biso   1.000  C
  C27      1.0000 0.29953  0.59352  0.54952  Biso   1.000  C
  C28      1.0000 0.09354  0.79952  0.04953  Biso   1.000  C
  C29      1.0000 0.79951  0.09356  0.95047  Biso   1.000  C
  C30      1.0000 0.20048  0.90645  0.04952  Biso   1.000  C
  C31      1.0000 0.40647  0.70049  0.54952  Biso   1.000  C
  C32      1.0000 0.70010  0.40685  0.45039  Biso   1.000  C
  C33      1.0000 0.97171  0.24396  0.92588  Biso   1.000  C
  C34      1.0000 0.52804  0.25624  0.42584  Biso   1.000  C
  C35      1.0000 0.25599  0.52830  0.57410  Biso   1.000  C
  C36      1.0000 0.02828  0.75605  0.07411  Biso   1.000  C
  C37      1.0000 0.75604  0.02829  0.92588  Biso   1.000  C
  C38      1.0000 0.24394  0.97172  0.07412  Biso   1.000  C
  C39      1.0000 0.47169  0.74402  0.57410  Biso   1.000  C
  C40      1.0000 0.74375  0.47197  0.42584  Biso   1.000  C
  C41      1.0000 0.10043  0.14574  0.84911  Biso   1.000  C
  C42      1.0000 0.39876  0.35483  0.34918  Biso   1.000  C
  C43      1.0000 0.35462  0.39903  0.65079  Biso   1.000  C
  C44      1.0000 0.89957  0.85426  0.15089  Biso   1.000  C
  C45      1.0000 0.85428  0.89955  0.84911  Biso   1.000  C
  C46      1.0000 0.14572  0.10045  0.15089  Biso   1.000  C
  C47      1.0000 0.60100  0.64535  0.65077  Biso   1.000  C
  C48      1.0000 0.64520  0.60120  0.34916  Biso   1.000  C
  C49      1.0000 0.89445  0.39294  0.47061  Biso   1.000  C
  C50      1.0000 0.60593  0.10659  0.97070  Biso   1.000  C
  C51      1.0000 0.10659  0.60593  0.02928  Biso   1.000  C
  C52      1.0000 0.10534  0.60723  0.52936  Biso   1.000  C
  C53      1.0000 0.60709  0.10552  0.47060  Biso   1.000  C
  C54      1.0000 0.39274  0.89469  0.52937  Biso   1.000  C
  C55      1.0000 0.39406  0.89342  0.02929  Biso   1.000  C
  C56      1.0000 0.89340  0.39408  0.97071  Biso   1.000  C
  C57      1.0000 0.15197  0.19348  0.81852  Biso   1.000  C
  C58      1.0000 0.34729  0.30698  0.31868  Biso   1.000  C
  C59      1.0000 0.30687  0.34747  0.68130  Biso   1.000  C
  C60      1.0000 0.84803  0.80652  0.18148  Biso   1.000  C
  C61      1.0000 0.80656  0.84800  0.81852  Biso   1.000  C
  C62      1.0000 0.19344  0.15201  0.18148  Biso   1.000  C
  C63      1.0000 0.65259  0.69307  0.68128  Biso   1.000  C
  C64      1.0000 0.69308  0.65264  0.31866  Biso   1.000  C
  C65      1.0000 0.94519  0.44104  0.43929  Biso   1.000  C
  C66      1.0000 0.55519  0.05854  0.93925  Biso   1.000  C
  C67      1.0000 0.05857  0.55516  0.06073  Biso   1.000  C
  C68      1.0000 0.05472  0.55901  0.56070  Biso   1.000  C
  C69      1.0000 0.55895  0.05481  0.43928  Biso   1.000  C
  C70      1.0000 0.44099  0.94529  0.56071  Biso   1.000  C
  C71      1.0000 0.44480  0.94147  0.06074  Biso   1.000  C
  C72      1.0000 0.94143  0.44485  0.93926  Biso   1.000  C
  C73      1.0000 0.07177  0.34428  0.86349  Biso   1.000  C
  C74      1.0000 0.42796  0.15583  0.36366  Biso   1.000  C
  C75      1.0000 0.15578  0.42804  0.63633  Biso   1.000  C
  C76      1.0000 0.92822  0.65573  0.13651  Biso   1.000  C
  C77      1.0000 0.65577  0.92818  0.86348  Biso   1.000  C
  C78      1.0000 0.34422  0.07183  0.13652  Biso   1.000  C
  C79      1.0000 0.57201  0.84418  0.63632  Biso   1.000  C
  C80      1.0000 0.84421  0.57199  0.36366  Biso   1.000  C
  C81      1.0000 0.02754  0.02755  1.00000  Biso   1.000  C
  C82      1.0000 0.47222  0.47268  0.49992  Biso   1.000  C
  C83      1.0000 0.97245  0.97247  1.00000  Biso   1.000  C
  C84      1.0000 0.52731  0.52779  0.49992  Biso   1.000  C
  H1       1.0000 0.82537  0.26736  0.70797  Biso   1.000  H
  H2       1.0000 0.67649  0.23080  0.20700  Biso   1.000  H
  H3       1.0000 0.23077  0.67653  0.79301  Biso   1.000  H
  H4       1.0000 0.17446  0.73281  0.29211  Biso   1.000  H
  H5       1.0000 0.73264  0.17463  0.70796  Biso   1.000  H
  H6       1.0000 0.26718  0.82554  0.29211  Biso   1.000  H
  H7       1.0000 0.32350  0.76921  0.79299  Biso   1.000  H
  H8       1.0000 0.76922  0.32348  0.20698  Biso   1.000  H
  H9       1.0000 0.05034  0.13526  0.36520  Biso   1.000  H
  H10      1.0000 0.44849  0.36590  0.86558  Biso   1.000  H
  H11      1.0000 0.36586  0.44852  0.13443  Biso   1.000  H
  H12      1.0000 0.94943  0.86498  0.63481  Biso   1.000  H
  H13      1.0000 0.86476  0.94964  0.36520  Biso   1.000  H
  H14      1.0000 0.13500  0.05059  0.63482  Biso   1.000  H
  H15      1.0000 0.55150  0.63411  0.13441  Biso   1.000  H
  H16      1.0000 0.63413  0.55149  0.86556  Biso   1.000  H
  H17      1.0000 0.02990  0.16119  0.18673  Biso   1.000  H
  H18      1.0000 0.47076  0.33788  0.68663  Biso   1.000  H
  H19      1.0000 0.33754  0.47101  0.31332  Biso   1.000  H
  H20      1.0000 0.97010  0.83881  0.81327  Biso   1.000  H
  H21      1.0000 0.83882  0.97009  0.18673  Biso   1.000  H
  H22      1.0000 0.16118  0.02991  0.81327  Biso   1.000  H
  H23      1.0000 0.52905  0.66241  0.31329  Biso   1.000  H
  H24      1.0000 0.66218  0.52918  0.68660  Biso   1.000  H
  H25      1.0000 0.97166  0.29354  0.53070  Biso   1.000  H
  H26      1.0000 0.52929  0.20527  0.03097  Biso   1.000  H
  H27      1.0000 0.20526  0.52930  0.96902  Biso   1.000  H
  H28      1.0000 0.02808  0.70664  0.46927  Biso   1.000  H
  H29      1.0000 0.70652  0.02827  0.53067  Biso   1.000  H
  H30      1.0000 0.29330  0.97199  0.46929  Biso   1.000  H
  H31      1.0000 0.47070  0.79474  0.96902  Biso   1.000  H
  H32      1.0000 0.79472  0.47071  0.03098  Biso   1.000  H
  H33      1.0000 0.11265  0.25424  0.24071  Biso   1.000  H
  H34      1.0000 0.38788  0.24490  0.74048  Biso   1.000  H
  H35      1.0000 0.24471  0.38797  0.25952  Biso   1.000  H
  H36      1.0000 0.88735  0.74576  0.75929  Biso   1.000  H
  H37      1.0000 0.74581  0.88729  0.24071  Biso   1.000  H
  H38      1.0000 0.25419  0.11271  0.75929  Biso   1.000  H
  H39      1.0000 0.61214  0.75518  0.25948  Biso   1.000  H
  H40      1.0000 0.75521  0.61201  0.74044  Biso   1.000  H
  H41      1.0000 0.06486  0.37554  0.47388  Biso   1.000  H
  H42      1.0000 0.43574  0.12373  0.97382  Biso   1.000  H
  H43      1.0000 0.12377  0.43571  0.02616  Biso   1.000  H
  H44      1.0000 0.93508  0.62444  0.52612  Biso   1.000  H
  H45      1.0000 0.62447  0.93512  0.47386  Biso   1.000  H
  H46      1.0000 0.37555  0.06494  0.52615  Biso   1.000  H
  H47      1.0000 0.56425  0.87627  0.02617  Biso   1.000  H
  H48      1.0000 0.87622  0.56430  0.97384  Biso   1.000  H
  H49      1.0000 0.10937  0.38440  0.83998  Biso   1.000  H
  H50      1.0000 0.39022  0.11579  0.34030  Biso   1.000  H
  H51      1.0000 0.11581  0.39024  0.65971  Biso   1.000  H
  H52      1.0000 0.89063  0.61560  0.16002  Biso   1.000  H
  H53      1.0000 0.61567  0.89056  0.83997  Biso   1.000  H
  H54      1.0000 0.38433  0.10944  0.16002  Biso   1.000  H
  H55      1.0000 0.60983  0.88412  0.65970  Biso   1.000  H
  H56      1.0000 0.88427  0.60970  0.34029  Biso   1.000  H
