data_image0
_cell_length_a       7.7258
_cell_length_b       6.04224
_cell_length_c       13.4408
_cell_angle_alpha    100.871
_cell_angle_beta     113.86
_cell_angle_gamma    86.032

_symmetry_space_group_name_H-M    "P 1"
_symmetry_int_tables_number       1

loop_
  _symmetry_equiv_pos_as_xyz
  'x, y, z'

loop_
  _atom_site_label
  _atom_site_occupancy
  _atom_site_fract_x
  _atom_site_fract_y
  _atom_site_fract_z
  _atom_site_thermal_displace_type
  _atom_site_B_iso_or_equiv
  _atom_site_type_symbol
  C1       1.0000 0.88611  0.96856  0.60823  Biso   1.000  C
  C2       1.0000 0.85920  0.84377  0.67641  Biso   1.000  C
  C3       1.0000 0.92000  0.92738  0.79242  Biso   1.000  C
  C4       1.0000 0.89205  0.80597  0.86352  Biso   1.000  C
  C5       1.0000 0.95306  0.89052  0.97771  Biso   1.000  C
  C6       1.0000 0.92592  0.76894  0.05016  Biso   1.000  C
  C7       1.0000 0.98718  0.85352  0.16314  Biso   1.000  C
  C8       1.0000 0.96109  0.73034  0.23710  Biso   1.000  C
  C9       1.0000 0.97731  0.18401  0.65207  Biso   1.000  C
  C10      1.0000 0.02269  0.81599  0.34793  Biso   1.000  C
  C11      1.0000 0.07409  0.23106  0.94984  Biso   1.000  C
  C12      1.0000 0.01282  0.14648  0.83685  Biso   1.000  C
  C13      1.0000 0.03891  0.26966  0.76290  Biso   1.000  C
  C14      1.0000 0.11389  0.03144  0.39177  Biso   1.000  C
  C15      1.0000 0.14080  0.15623  0.32359  Biso   1.000  C
  C16      1.0000 0.08000  0.07262  0.20758  Biso   1.000  C
  C17      1.0000 0.10795  0.19403  0.13648  Biso   1.000  C
  C18      1.0000 0.04694  0.10948  0.02229  Biso   1.000  C
  C19      1.0000 0.45961  0.41609  0.61887  Biso   1.000  C
  C20      1.0000 0.51947  0.30320  0.70638  Biso   1.000  C
  C21      1.0000 0.50263  0.40277  0.80734  Biso   1.000  C
  C22      1.0000 0.56032  0.29043  0.89713  Biso   1.000  C
  C23      1.0000 0.54053  0.38806  0.99582  Biso   1.000  C
  C24      1.0000 0.40232  0.72478  0.91327  Biso   1.000  C
  C25      1.0000 0.42133  0.62625  0.81556  Biso   1.000  C
  C26      1.0000 0.36023  0.73719  0.72201  Biso   1.000  C
  C27      1.0000 0.37862  0.63505  0.62657  Biso   1.000  C
  C28      1.0000 0.54039  0.58391  0.38113  Biso   1.000  C
  C29      1.0000 0.48053  0.69680  0.29362  Biso   1.000  C
  C30      1.0000 0.49737  0.59723  0.19266  Biso   1.000  C
  C31      1.0000 0.43968  0.70957  0.10287  Biso   1.000  C
  C32      1.0000 0.45947  0.61194  0.00418  Biso   1.000  C
  C33      1.0000 0.59768  0.27522  0.08673  Biso   1.000  C
  C34      1.0000 0.57867  0.37375  0.18444  Biso   1.000  C
  C35      1.0000 0.63978  0.26281  0.27799  Biso   1.000  C
  C36      1.0000 0.62138  0.36495  0.37343  Biso   1.000  C
  H1       1.0000 0.83863  0.90224  0.52000  Biso   1.000  H
  H2       1.0000 0.79153  0.67796  0.64385  Biso   1.000  H
  H3       1.0000 0.82095  0.64224  0.83026  Biso   1.000  H
  H4       1.0000 0.85583  0.60467  0.01701  Biso   1.000  H
  H5       1.0000 0.89111  0.56631  0.20361  Biso   1.000  H
  H6       1.0000 0.99969  0.28106  0.59746  Biso   1.000  H
  H7       1.0000 0.00032  0.71894  0.40254  Biso   1.000  H
  H8       1.0000 0.14417  0.39533  0.98299  Biso   1.000  H
  H9       1.0000 0.10889  0.43369  0.79639  Biso   1.000  H
  H10      1.0000 0.16137  0.09776  0.48000  Biso   1.000  H
  H11      1.0000 0.20847  0.32204  0.35615  Biso   1.000  H
  H12      1.0000 0.17905  0.35776  0.16974  Biso   1.000  H
  H13      1.0000 0.47400  0.33700  0.54274  Biso   1.000  H
  H14      1.0000 0.58072  0.13573  0.70020  Biso   1.000  H
  H15      1.0000 0.62173  0.12294  0.89089  Biso   1.000  H
  H16      1.0000 0.34032  0.89200  0.91939  Biso   1.000  H
  H17      1.0000 0.29798  0.90416  0.72791  Biso   1.000  H
  H18      1.0000 0.33129  0.72176  0.55597  Biso   1.000  H
  H19      1.0000 0.52600  0.66300  0.45726  Biso   1.000  H
  H20      1.0000 0.41928  0.86427  0.29980  Biso   1.000  H
  H21      1.0000 0.37828  0.87706  0.10911  Biso   1.000  H
  H22      1.0000 0.65968  0.10800  0.08061  Biso   1.000  H
  H23      1.0000 0.70202  0.09584  0.27209  Biso   1.000  H
  H24      1.0000 0.66871  0.27824  0.44403  Biso   1.000  H
