data_image0
_cell_length_a       10.2432
_cell_length_b       10.3501
_cell_length_c       14.1294
_cell_angle_alpha    89.9417
_cell_angle_beta     89.984
_cell_angle_gamma    99.3629

_symmetry_space_group_name_H-M    "P 1"
_symmetry_int_tables_number       1

loop_
  _symmetry_equiv_pos_as_xyz
  'x, y, z'

loop_
  _atom_site_label
  _atom_site_occupancy
  _atom_site_fract_x
  _atom_site_fract_y
  _atom_site_fract_z
  _atom_site_thermal_displace_type
  _atom_site_B_iso_or_equiv
  _atom_site_type_symbol
  H1       1.0000 0.34048  0.14507  0.75367  Biso   1.000  H
  H2       1.0000 0.65972  0.35518  0.25361  Biso   1.000  H
  H3       1.0000 0.65952  0.85493  0.24633  Biso   1.000  H
  H4       1.0000 0.34028  0.64482  0.74639  Biso   1.000  H
  H5       1.0000 0.85573  0.63122  0.93243  Biso   1.000  H
  H6       1.0000 0.14388  0.86838  0.43244  Biso   1.000  H
  H7       1.0000 0.14427  0.36878  0.06757  Biso   1.000  H
  H8       1.0000 0.85612  0.13162  0.56756  Biso   1.000  H
  H9       1.0000 0.93804  0.65232  0.82041  Biso   1.000  H
  H10      1.0000 0.06190  0.84768  0.32035  Biso   1.000  H
  H11      1.0000 0.06196  0.34768  0.17959  Biso   1.000  H
  H12      1.0000 0.93810  0.15232  0.67965  Biso   1.000  H
  H13      1.0000 0.16100  0.57796  0.88875  Biso   1.000  H
  H14      1.0000 0.83871  0.92167  0.38860  Biso   1.000  H
  H15      1.0000 0.83900  0.42204  0.11125  Biso   1.000  H
  H16      1.0000 0.16129  0.07833  0.61140  Biso   1.000  H
  H17      1.0000 0.68577  0.91234  0.89570  Biso   1.000  H
  H18      1.0000 0.31422  0.58766  0.39582  Biso   1.000  H
  H19      1.0000 0.31423  0.08766  0.10430  Biso   1.000  H
  H20      1.0000 0.68578  0.41234  0.60418  Biso   1.000  H
  H21      1.0000 0.70618  0.78405  0.97663  Biso   1.000  H
  H22      1.0000 0.29335  0.71563  0.47674  Biso   1.000  H
  H23      1.0000 0.29382  0.21595  0.02337  Biso   1.000  H
  H24      1.0000 0.70665  0.28437  0.52326  Biso   1.000  H
  H25      1.0000 0.69790  0.42510  0.98525  Biso   1.000  H
  H26      1.0000 0.30177  0.07494  0.48522  Biso   1.000  H
  H27      1.0000 0.30210  0.57490  0.01475  Biso   1.000  H
  H28      1.0000 0.69823  0.92506  0.51478  Biso   1.000  H
  H29      1.0000 0.72949  0.59721  0.73449  Biso   1.000  H
  H30      1.0000 0.27067  0.90340  0.23461  Biso   1.000  H
  H31      1.0000 0.27051  0.40279  0.26551  Biso   1.000  H
  H32      1.0000 0.72933  0.09660  0.76539  Biso   1.000  H
  H33      1.0000 0.74477  0.46817  0.81455  Biso   1.000  H
  H34      1.0000 0.25503  0.03203  0.31473  Biso   1.000  H
  H35      1.0000 0.25523  0.53183  0.18545  Biso   1.000  H
  H36      1.0000 0.74497  0.96797  0.68527  Biso   1.000  H
  H37      1.0000 0.49233  0.73064  0.89079  Biso   1.000  H
  H38      1.0000 0.50752  0.76952  0.39111  Biso   1.000  H
  H39      1.0000 0.50767  0.26936  0.10921  Biso   1.000  H
  H40      1.0000 0.49248  0.23048  0.60889  Biso   1.000  H
  H41      1.0000 0.57696  0.76203  0.78073  Biso   1.000  H
  H42      1.0000 0.42324  0.73840  0.28099  Biso   1.000  H
  H43      1.0000 0.42304  0.23797  0.21927  Biso   1.000  H
  H44      1.0000 0.57676  0.26160  0.71901  Biso   1.000  H
  H45      1.0000 0.90935  0.20532  0.85691  Biso   1.000  H
  H46      1.0000 0.09074  0.29426  0.35704  Biso   1.000  H
  H47      1.0000 0.09065  0.79468  0.14309  Biso   1.000  H
  H48      1.0000 0.90926  0.70574  0.64296  Biso   1.000  H
  H49      1.0000 0.10771  0.10631  0.80903  Biso   1.000  H
  H50      1.0000 0.89243  0.39371  0.30931  Biso   1.000  H
  H51      1.0000 0.89229  0.89369  0.19097  Biso   1.000  H
  H52      1.0000 0.10757  0.60629  0.69069  Biso   1.000  H
  H53      1.0000 0.93918  0.43985  0.90256  Biso   1.000  H
  H54      1.0000 0.06056  0.05950  0.40253  Biso   1.000  H
  H55      1.0000 0.06082  0.56015  0.09744  Biso   1.000  H
  H56      1.0000 0.93944  0.94050  0.59747  Biso   1.000  H
  H57      1.0000 0.91477  0.98833  0.87927  Biso   1.000  H
  H58      1.0000 0.08538  0.51151  0.37906  Biso   1.000  H
  H59      1.0000 0.08523  0.01167  0.12073  Biso   1.000  H
  H60      1.0000 0.91462  0.48849  0.62094  Biso   1.000  H
  H61      1.0000 0.02418  0.87972  0.84481  Biso   1.000  H
  H62      1.0000 0.97593  0.62008  0.34447  Biso   1.000  H
  H63      1.0000 0.97582  0.12028  0.15519  Biso   1.000  H
  H64      1.0000 0.02407  0.37992  0.65553  Biso   1.000  H
  H65      1.0000 0.95700  0.87213  0.96263  Biso   1.000  H
  H66      1.0000 0.04265  0.62733  0.46238  Biso   1.000  H
  H67      1.0000 0.04300  0.12787  0.03737  Biso   1.000  H
  H68      1.0000 0.95735  0.37267  0.53762  Biso   1.000  H
  H69      1.0000 0.83304  0.23184  0.03882  Biso   1.000  H
  H70      1.0000 0.16672  0.26816  0.53871  Biso   1.000  H
  H71      1.0000 0.16696  0.76816  0.96118  Biso   1.000  H
  H72      1.0000 0.83328  0.73184  0.46129  Biso   1.000  H
  H73      1.0000 0.76487  0.06873  0.00946  Biso   1.000  H
  H74      1.0000 0.23500  0.43131  0.50926  Biso   1.000  H
  H75      1.0000 0.23513  0.93127  0.99054  Biso   1.000  H
  H76      1.0000 0.76500  0.56869  0.49074  Biso   1.000  H
  H77      1.0000 0.69892  0.14666  0.10565  Biso   1.000  H
  H78      1.0000 0.30076  0.35322  0.60551  Biso   1.000  H
  H79      1.0000 0.30108  0.85334  0.89435  Biso   1.000  H
  H80      1.0000 0.69924  0.64678  0.39449  Biso   1.000  H
  C1       1.0000 0.49871  0.48713  0.85505  Biso   1.000  C
  C2       1.0000 0.50118  0.01304  0.35513  Biso   1.000  C
  C3       1.0000 0.50129  0.51287  0.14495  Biso   1.000  C
  C4       1.0000 0.49882  0.98696  0.64487  Biso   1.000  C
  C5       1.0000 0.84560  0.66109  0.85742  Biso   1.000  C
  C6       1.0000 0.15428  0.83886  0.35742  Biso   1.000  C
  C7       1.0000 0.15440  0.33891  0.14258  Biso   1.000  C
  C8       1.0000 0.84572  0.16114  0.64258  Biso   1.000  C
  C9       1.0000 0.46087  0.24334  0.85614  Biso   1.000  C
  C10      1.0000 0.53927  0.25686  0.35624  Biso   1.000  C
  C11      1.0000 0.53913  0.75666  0.14386  Biso   1.000  C
  C12      1.0000 0.46073  0.74314  0.64376  Biso   1.000  C
  C13      1.0000 0.14871  0.47343  0.87371  Biso   1.000  C
  C14      1.0000 0.85109  0.02627  0.37361  Biso   1.000  C
  C15      1.0000 0.85129  0.52657  0.12629  Biso   1.000  C
  C16      1.0000 0.14891  0.97373  0.62639  Biso   1.000  C
  C17      1.0000 0.70137  0.80991  0.90051  Biso   1.000  C
  C18      1.0000 0.29849  0.69004  0.40062  Biso   1.000  C
  C19      1.0000 0.29863  0.19009  0.09949  Biso   1.000  C
  C20      1.0000 0.70151  0.30996  0.59938  Biso   1.000  C
  C21      1.0000 0.53038  0.36101  0.88802  Biso   1.000  C
  C22      1.0000 0.46959  0.13913  0.38810  Biso   1.000  C
  C23      1.0000 0.46962  0.63899  0.11198  Biso   1.000  C
  C24      1.0000 0.53041  0.86087  0.61190  Biso   1.000  C
  C25      1.0000 0.63470  0.34343  0.95164  Biso   1.000  C
  C26      1.0000 0.36512  0.15665  0.45163  Biso   1.000  C
  C27      1.0000 0.36530  0.65657  0.04836  Biso   1.000  C
  C28      1.0000 0.63488  0.84335  0.54837  Biso   1.000  C
  C29      1.0000 0.73175  0.57098  0.81032  Biso   1.000  C
  C30      1.0000 0.26819  0.92926  0.31046  Biso   1.000  C
  C31      1.0000 0.26825  0.42902  0.18968  Biso   1.000  C
  C32      1.0000 0.73181  0.07074  0.68954  Biso   1.000  C
  C33      1.0000 0.64647  0.21545  0.96836  Biso   1.000  C
  C34      1.0000 0.35342  0.28462  0.46830  Biso   1.000  C
  C35      1.0000 0.35353  0.78455  0.03164  Biso   1.000  C
  C36      1.0000 0.64658  0.71538  0.53170  Biso   1.000  C
  C37      1.0000 0.26192  0.42137  0.84636  Biso   1.000  C
  C38      1.0000 0.73800  0.07857  0.34630  Biso   1.000  C
  C39      1.0000 0.73808  0.57863  0.15364  Biso   1.000  C
  C40      1.0000 0.26200  0.92143  0.65370  Biso   1.000  C
  C41      1.0000 0.58441  0.72515  0.85314  Biso   1.000  C
  C42      1.0000 0.41554  0.77506  0.35339  Biso   1.000  C
  C43      1.0000 0.41559  0.27485  0.14686  Biso   1.000  C
  C44      1.0000 0.58446  0.22494  0.64661  Biso   1.000  C
  C45      1.0000 0.00757  0.26437  0.85532  Biso   1.000  C
  C46      1.0000 0.99248  0.23531  0.35538  Biso   1.000  C
  C47      1.0000 0.99243  0.73563  0.14468  Biso   1.000  C
  C48      1.0000 0.00752  0.76469  0.64462  Biso   1.000  C
  C49      1.0000 0.24359  0.28570  0.82367  Biso   1.000  C
  C50      1.0000 0.75652  0.21433  0.32372  Biso   1.000  C
  C51      1.0000 0.75641  0.71430  0.17633  Biso   1.000  C
  C52      1.0000 0.24348  0.78567  0.67628  Biso   1.000  C
  C53      1.0000 0.11758  0.20967  0.82770  Biso   1.000  C
  C54      1.0000 0.88258  0.29024  0.32781  Biso   1.000  C
  C55      1.0000 0.88242  0.79033  0.17230  Biso   1.000  C
  C56      1.0000 0.11742  0.70976  0.67219  Biso   1.000  C
  C57      1.0000 0.02380  0.39647  0.87972  Biso   1.000  C
  C58      1.0000 0.97606  0.10309  0.37968  Biso   1.000  C
  C59      1.0000 0.97620  0.60353  0.12028  Biso   1.000  C
  C60      1.0000 0.02394  0.89691  0.62032  Biso   1.000  C
  C61      1.0000 0.93566  0.88814  0.88687  Biso   1.000  C
  C62      1.0000 0.06430  0.61163  0.38665  Biso   1.000  C
  C63      1.0000 0.06434  0.11186  0.11313  Biso   1.000  C
  C64      1.0000 0.93570  0.38837  0.61335  Biso   1.000  C
  C65      1.0000 0.74015  0.16252  0.03368  Biso   1.000  C
  C66      1.0000 0.25964  0.33746  0.53353  Biso   1.000  C
  C67      1.0000 0.25985  0.83748  0.96632  Biso   1.000  C
  C68      1.0000 0.74036  0.66254  0.46647  Biso   1.000  C
  S1       1.0000 0.52319  0.11072  0.90626  Biso   1.000  S
  S2       1.0000 0.47694  0.38943  0.40626  Biso   1.000  S
  S3       1.0000 0.47681  0.88928  0.09374  Biso   1.000  S
  S4       1.0000 0.52306  0.61057  0.59374  Biso   1.000  S
  N1       1.0000 0.37968  0.51062  0.83413  Biso   1.000  N
  N2       1.0000 0.62015  0.98948  0.33407  Biso   1.000  N
  N3       1.0000 0.62032  0.48938  0.16587  Biso   1.000  N
  N4       1.0000 0.37985  0.01052  0.66593  Biso   1.000  N
  N5       1.0000 0.60435  0.58841  0.85244  Biso   1.000  N
  N6       1.0000 0.39549  0.91178  0.35267  Biso   1.000  N
  N7       1.0000 0.39565  0.41159  0.14756  Biso   1.000  N
  N8       1.0000 0.60451  0.08822  0.64733  Biso   1.000  N
  N9       1.0000 0.82372  0.79697  0.85075  Biso   1.000  N
  N10      1.0000 0.17630  0.70305  0.35070  Biso   1.000  N
  N11      1.0000 0.17628  0.20303  0.14925  Biso   1.000  N
  N12      1.0000 0.82370  0.29695  0.64930  Biso   1.000  N
  N13      1.0000 0.35363  0.22838  0.79555  Biso   1.000  N
  N14      1.0000 0.64661  0.27193  0.29570  Biso   1.000  N
  N15      1.0000 0.64637  0.77162  0.20445  Biso   1.000  N
  N16      1.0000 0.35339  0.72807  0.70430  Biso   1.000  N
