data_image0
_cell_length_a       3.89825
_cell_length_b       7.87966
_cell_length_c       19.4464
_cell_angle_alpha    96.5534
_cell_angle_beta     90
_cell_angle_gamma    90

_symmetry_space_group_name_H-M    "P 1"
_symmetry_int_tables_number       1

loop_
  _symmetry_equiv_pos_as_xyz
  'x, y, z'

loop_
  _atom_site_label
  _atom_site_occupancy
  _atom_site_fract_x
  _atom_site_fract_y
  _atom_site_fract_z
  _atom_site_thermal_displace_type
  _atom_site_B_iso_or_equiv
  _atom_site_type_symbol
  C1       1.0000 0.31457  0.52820  0.36899  Biso   1.000  C
  C2       1.0000 0.28724  0.28129  0.42160  Biso   1.000  C
  C3       1.0000 0.00411  0.28750  0.31152  Biso   1.000  C
  N1       1.0000 0.39717  0.44283  0.42249  Biso   1.000  N
  H1       1.0000 0.35964  0.21566  0.46613  Biso   1.000  H
  H2       1.0000 0.03805  0.95142  0.41004  Biso   1.000  H
  H3       1.0000 0.69189  0.81502  0.31247  Biso   1.000  H
  C4       1.0000 0.97199  0.02218  0.36678  Biso   1.000  C
  C5       1.0000 0.78042  0.94654  0.31272  Biso   1.000  C
  C6       1.0000 0.08974  0.19513  0.36787  Biso   1.000  C
  H4       1.0000 0.40157  0.83697  0.19558  Biso   1.000  H
  C7       1.0000 0.69160  0.03773  0.25539  Biso   1.000  C
  H5       1.0000 0.40880  0.65968  0.37147  Biso   1.000  H
  C8       1.0000 0.11878  0.45892  0.31166  Biso   1.000  C
  H6       1.0000 0.45073  0.28099  0.10093  Biso   1.000  H
  H7       1.0000 0.77233  0.54523  0.15702  Biso   1.000  H
  H8       1.0000 0.11849  0.68164  0.25459  Biso   1.000  H
  C9       1.0000 0.83839  0.47447  0.20028  Biso   1.000  C
  C10      1.0000 0.02995  0.55011  0.25434  Biso   1.000  C
  C11      1.0000 0.72064  0.30152  0.19919  Biso   1.000  C
  C12      1.0000 0.49581  0.96845  0.19807  Biso   1.000  C
  C13      1.0000 0.52314  0.21536  0.14546  Biso   1.000  C
  C14      1.0000 0.80626  0.20915  0.25554  Biso   1.000  C
  N2       1.0000 0.41321  0.05383  0.14456  Biso   1.000  N
  C15      1.0000 0.31457  0.47180  0.63101  Biso   1.000  C
  C16      1.0000 0.28724  0.71871  0.57840  Biso   1.000  C
  C17      1.0000 0.00411  0.71250  0.68848  Biso   1.000  C
  N3       1.0000 0.39717  0.55717  0.57751  Biso   1.000  N
  H9       1.0000 0.35964  0.78434  0.53387  Biso   1.000  H
  H10      1.0000 0.03805  0.04858  0.58996  Biso   1.000  H
  H11      1.0000 0.69189  0.18498  0.68753  Biso   1.000  H
  C18      1.0000 0.97199  0.97782  0.63322  Biso   1.000  C
  C19      1.0000 0.78042  0.05346  0.68728  Biso   1.000  C
  C20      1.0000 0.08974  0.80487  0.63213  Biso   1.000  C
  H12      1.0000 0.40157  0.16303  0.80442  Biso   1.000  H
  C21      1.0000 0.69160  0.96227  0.74461  Biso   1.000  C
  H13      1.0000 0.40880  0.34032  0.62853  Biso   1.000  H
  C22      1.0000 0.11878  0.54108  0.68834  Biso   1.000  C
  H14      1.0000 0.45073  0.71901  0.89907  Biso   1.000  H
  H15      1.0000 0.77233  0.45477  0.84298  Biso   1.000  H
  H16      1.0000 0.11849  0.31836  0.74541  Biso   1.000  H
  C23      1.0000 0.83839  0.52553  0.79972  Biso   1.000  C
  C24      1.0000 0.02995  0.44989  0.74566  Biso   1.000  C
  C25      1.0000 0.72064  0.69848  0.80081  Biso   1.000  C
  C26      1.0000 0.49581  0.03155  0.80193  Biso   1.000  C
  C27      1.0000 0.52314  0.78464  0.85454  Biso   1.000  C
  C28      1.0000 0.80626  0.79085  0.74446  Biso   1.000  C
  N4       1.0000 0.41321  0.94617  0.85544  Biso   1.000  N
